opendss_networks/LV10_223bus/Groundings.dss
new reactor.tx_busgrounding_B1862 phases=1 bus1=B1862.4 bus2=B1862.0 r=0.3 x=0.0
new reactor.loadbusgrounding_B861 phases=1 bus1=B861.4 bus2=B861.0 r=10.0 x=0.0
new reactor.loadbusgrounding_B582 phases=1 bus1=B582.4 bus2=B582.0 r=10.0 x=0.0
new reactor.loadbusgrounding_B1403 phases=1 bus1=B1403.4 bus2=B1403.0 r=10.0 x=0.0
new reactor.loadbusgrounding_B2016 phases=1 bus1=B2016.4 bus2=B2016.0 r=10.0 x=0.0
new reactor.loadbusgrounding_B1775 phases=1 bus1=B1775.4 bus2=B1775.0 r=10.0 x=0.0
new reactor.loadbusgrounding_B1191 phases=1 bus1=B1191.4 bus2=B1191.0 r=10.0 x=0.0
new reactor.loadbusgrounding_B1043 phases=1 bus1=B1043.4 bus2=B1043.0 r=10.0 x=0.0
new reactor.loadbusgrounding_B420 phases=1 bus1=B420.4 bus2=B420.0 r=10.0 x=0.0
new reactor.loadbusgrounding_B1205 phases=1 bus1=B1205.4 bus2=B1205.0 r=10.0 x=0.0
new reactor.loadbusgrounding_B3121 phases=1 bus1=B3121.4 bus2=B3121.0 r=10.0 x=0.0
new reactor.loadbusgrounding_B2394 phases=1 bus1=B2394.4 bus2=B2394.0 r=10.0 x=0.0
new reactor.loadbusgrounding_B1951 phases=1 bus1=B1951.4 bus2=B1951.0 r=10.0 x=0.0
new reactor.loadbusgrounding_B1348 phases=1 bus1=B1348.4 bus2=B1348.0 r=10.0 x=0.0
new reactor.loadbusgrounding_B1857 phases=1 bus1=B1857.4 bus2=B1857.0 r=10.0 x=0.0
new reactor.loadbusgrounding_B3397 phases=1 bus1=B3397.4 bus2=B3397.0 r=10.0 x=0.0
new reactor.loadbusgrounding_B3140 phases=1 bus1=B3140.4 bus2=B3140.0 r=10.0 x=0.0
new reactor.loadbusgrounding_B2897 phases=1 bus1=B2897.4 bus2=B2897.0 r=10.0 x=0.0
new reactor.loadbusgrounding_B2637 phases=1 bus1=B2637.4 bus2=B2637.0 r=10.0 x=0.0
new reactor.loadbusgrounding_B3282 phases=1 bus1=B3282.4 bus2=B3282.0 r=10.0 x=0.0
new reactor.loadbusgrounding_B2162 phases=1 bus1=B2162.4 bus2=B2162.0 r=10.0 x=0.0
new reactor.loadbusgrounding_B1228 phases=1 bus1=B1228.4 bus2=B1228.0 r=10.0 x=0.0
new reactor.loadbusgrounding_B972 phases=1 bus1=B972.4 bus2=B972.0 r=10.0 x=0.0
new reactor.loadbusgrounding_B3238 phases=1 bus1=B3238.4 bus2=B3238.0 r=10.0 x=0.0
new reactor.loadbusgrounding_B2908 phases=1 bus1=B2908.4 bus2=B2908.0 r=10.0 x=0.0
new reactor.loadbusgrounding_B1440 phases=1 bus1=B1440.4 bus2=B1440.0 r=10.0 x=0.0
new reactor.loadbusgrounding_B223 phases=1 bus1=B223.4 bus2=B223.0 r=10.0 x=0.0
new reactor.loadbusgrounding_B2946 phases=1 bus1=B2946.4 bus2=B2946.0 r=10.0 x=0.0
new reactor.loadbusgrounding_B1271 phases=1 bus1=B1271.4 bus2=B1271.0 r=10.0 x=0.0
new reactor.loadbusgrounding_B1373 phases=1 bus1=B1373.4 bus2=B1373.0 r=10.0 x=0.0
new reactor.loadbusgrounding_B3261 phases=1 bus1=B3261.4 bus2=B3261.0 r=10.0 x=0.0
new reactor.loadbusgrounding_B2633 phases=1 bus1=B2633.4 bus2=B2633.0 r=10.0 x=0.0
new reactor.loadbusgrounding_B2634 phases=1 bus1=B2634.4 bus2=B2634.0 r=10.0 x=0.0
new reactor.loadbusgrounding_B965 phases=1 bus1=B965.4 bus2=B965.0 r=10.0 x=0.0
new reactor.loadbusgrounding_B1948 phases=1 bus1=B1948.4 bus2=B1948.0 r=10.0 x=0.0
new reactor.loadbusgrounding_B2797 phases=1 bus1=B2797.4 bus2=B2797.0 r=10.0 x=0.0
new reactor.loadbusgrounding_B1771 phases=1 bus1=B1771.4 bus2=B1771.0 r=10.0 x=0.0
new reactor.loadbusgrounding_B3318 phases=1 bus1=B3318.4 bus2=B3318.0 r=10.0 x=0.0
new reactor.loadbusgrounding_B823 phases=1 bus1=B823.4 bus2=B823.0 r=10.0 x=0.0
new reactor.loadbusgrounding_B2233 phases=1 bus1=B2233.4 bus2=B2233.0 r=10.0 x=0.0
new reactor.loadbusgrounding_B1213 phases=1 bus1=B1213.4 bus2=B1213.0 r=10.0 x=0.0
new reactor.loadbusgrounding_B3089 phases=1 bus1=B3089.4 bus2=B3089.0 r=10.0 x=0.0
new reactor.loadbusgrounding_B1047 phases=1 bus1=B1047.4 bus2=B1047.0 r=10.0 x=0.0
new reactor.loadbusgrounding_B3235 phases=1 bus1=B3235.4 bus2=B3235.0 r=10.0 x=0.0
new reactor.loadbusgrounding_B1593 phases=1 bus1=B1593.4 bus2=B1593.0 r=10.0 x=0.0
new reactor.loadbusgrounding_B2659 phases=1 bus1=B2659.4 bus2=B2659.0 r=10.0 x=0.0
new reactor.loadbusgrounding_B3262 phases=1 bus1=B3262.4 bus2=B3262.0 r=10.0 x=0.0
new reactor.loadbusgrounding_B1979 phases=1 bus1=B1979.4 bus2=B1979.0 r=10.0 x=0.0
new reactor.loadbusgrounding_B1435 phases=1 bus1=B1435.4 bus2=B1435.0 r=10.0 x=0.0
new reactor.loadbusgrounding_B563 phases=1 bus1=B563.4 bus2=B563.0 r=10.0 x=0.0
new reactor.loadbusgrounding_B258 phases=1 bus1=B258.4 bus2=B258.0 r=10.0 x=0.0
new reactor.loadbusgrounding_B320 phases=1 bus1=B320.4 bus2=B320.0 r=10.0 x=0.0
new reactor.loadbusgrounding_B529 phases=1 bus1=B529.4 bus2=B529.0 r=10.0 x=0.0
new reactor.loadbusgrounding_B1000 phases=1 bus1=B1000.4 bus2=B1000.0 r=10.0 x=0.0
new reactor.loadbusgrounding_B92 phases=1 bus1=B92.4 bus2=B92.0 r=10.0 x=0.0
new reactor.loadbusgrounding_B3226 phases=1 bus1=B3226.4 bus2=B3226.0 r=10.0 x=0.0
new reactor.loadbusgrounding_B2047 phases=1 bus1=B2047.4 bus2=B2047.0 r=10.0 x=0.0
new reactor.loadbusgrounding_B2763 phases=1 bus1=B2763.4 bus2=B2763.0 r=10.0 x=0.0
new reactor.loadbusgrounding_B1429 phases=1 bus1=B1429.4 bus2=B1429.0 r=10.0 x=0.0
new reactor.loadbusgrounding_B1954 phases=1 bus1=B1954.4 bus2=B1954.0 r=10.0 x=0.0
new reactor.loadbusgrounding_B3126 phases=1 bus1=B3126.4 bus2=B3126.0 r=10.0 x=0.0
new reactor.loadbusgrounding_B2495 phases=1 bus1=B2495.4 bus2=B2495.0 r=10.0 x=0.0
new reactor.loadbusgrounding_B2584 phases=1 bus1=B2584.4 bus2=B2584.0 r=10.0 x=0.0
new reactor.loadbusgrounding_B1428 phases=1 bus1=B1428.4 bus2=B1428.0 r=10.0 x=0.0
new reactor.loadbusgrounding_B893 phases=1 bus1=B893.4 bus2=B893.0 r=10.0 x=0.0
new reactor.loadbusgrounding_B437 phases=1 bus1=B437.4 bus2=B437.0 r=10.0 x=0.0
new reactor.loadbusgrounding_B410 phases=1 bus1=B410.4 bus2=B410.0 r=10.0 x=0.0
new reactor.loadbusgrounding_B2932 phases=1 bus1=B2932.4 bus2=B2932.0 r=10.0 x=0.0
new reactor.loadbusgrounding_B583 phases=1 bus1=B583.4 bus2=B583.0 r=10.0 x=0.0
new reactor.loadbusgrounding_B35 phases=1 bus1=B35.4 bus2=B35.0 r=10.0 x=0.0
new reactor.loadbusgrounding_B992 phases=1 bus1=B992.4 bus2=B992.0 r=10.0 x=0.0
new reactor.loadbusgrounding_B1701 phases=1 bus1=B1701.4 bus2=B1701.0 r=10.0 x=0.0
new reactor.loadbusgrounding_B1303 phases=1 bus1=B1303.4 bus2=B1303.0 r=10.0 x=0.0
new reactor.loadbusgrounding_B50 phases=1 bus1=B50.4 bus2=B50.0 r=10.0 x=0.0
new reactor.loadbusgrounding_B935 phases=1 bus1=B935.4 bus2=B935.0 r=10.0 x=0.0
new reactor.loadbusgrounding_B2499 phases=1 bus1=B2499.4 bus2=B2499.0 r=10.0 x=0.0
new reactor.loadbusgrounding_B615 phases=1 bus1=B615.4 bus2=B615.0 r=10.0 x=0.0
new reactor.loadbusgrounding_B2000 phases=1 bus1=B2000.4 bus2=B2000.0 r=10.0 x=0.0
new reactor.loadbusgrounding_B2279 phases=1 bus1=B2279.4 bus2=B2279.0 r=10.0 x=0.0
new reactor.loadbusgrounding_B2508 phases=1 bus1=B2508.4 bus2=B2508.0 r=10.0 x=0.0
new reactor.loadbusgrounding_B20 phases=1 bus1=B20.4 bus2=B20.0 r=10.0 x=0.0
new reactor.loadbusgrounding_B2801 phases=1 bus1=B2801.4 bus2=B2801.0 r=10.0 x=0.0
new reactor.loadbusgrounding_B1657 phases=1 bus1=B1657.4 bus2=B1657.0 r=10.0 x=0.0
new reactor.loadbusgrounding_B651 phases=1 bus1=B651.4 bus2=B651.0 r=10.0 x=0.0
new reactor.loadbusgrounding_B2331 phases=1 bus1=B2331.4 bus2=B2331.0 r=10.0 x=0.0
new reactor.loadbusgrounding_B2950 phases=1 bus1=B2950.4 bus2=B2950.0 r=10.0 x=0.0
new reactor.loadbusgrounding_B2611 phases=1 bus1=B2611.4 bus2=B2611.0 r=10.0 x=0.0
new reactor.loadbusgrounding_B2373 phases=1 bus1=B2373.4 bus2=B2373.0 r=10.0 x=0.0
new reactor.loadbusgrounding_B646 phases=1 bus1=B646.4 bus2=B646.0 r=10.0 x=0.0
new reactor.loadbusgrounding_B1798 phases=1 bus1=B1798.4 bus2=B1798.0 r=10.0 x=0.0
new reactor.loadbusgrounding_B292 phases=1 bus1=B292.4 bus2=B292.0 r=10.0 x=0.0
new reactor.loadbusgrounding_B2415 phases=1 bus1=B2415.4 bus2=B2415.0 r=10.0 x=0.0
new reactor.loadbusgrounding_B120 phases=1 bus1=B120.4 bus2=B120.0 r=10.0 x=0.0
new reactor.loadbusgrounding_B165 phases=1 bus1=B165.4 bus2=B165.0 r=10.0 x=0.0
new reactor.loadbusgrounding_B1424 phases=1 bus1=B1424.4 bus2=B1424.0 r=10.0 x=0.0
